Version 4
SHEET 1 880 736
WIRE 448 224 448 176
WIRE 640 352 640 128
WIRE 448 432 448 304
WIRE 592 432 448 432
WIRE -48 512 -96 512
WIRE 96 512 32 512
WIRE 448 512 448 432
WIRE 640 512 640 448
WIRE -48 656 -96 656
WIRE 96 656 32 656
WIRE 640 720 640 592
FLAG 720 128 0
FLAG 640 720 0
FLAG -96 512 0
FLAG -96 656 0
FLAG 96 512 carrier
FLAG 96 656 control
FLAG 448 176 0
FLAG 448 592 0
SYMBOL EPC2204 560 432 R0
SYMATTR InstName U1
SYMBOL voltage 624 128 R270
WINDOW 0 32 56 VTop 2
WINDOW 3 -32 56 VBottom 2
SYMATTR InstName V1
SYMATTR Value 10
SYMBOL signal 48 512 R90
WINDOW 0 -32 56 VBottom 2
WINDOW 3 32 56 VTop 0
SYMATTR InstName Tri1
SYMATTR Value PULSE(-1.2 1.2 0 3.125e-5 3.125e-5 0 6.25e-5)
SYMBOL signal 48 656 R90
WINDOW 0 -32 56 VBottom 2
WINDOW 3 32 56 VTop 0
SYMATTR InstName Sine1
SYMATTR Value SINE(0 1 50)
SYMBOL bv 448 320 R180
WINDOW 3 24 16 Left 2
WINDOW 0 24 96 Left 2
SYMATTR Value V=if(v(control)>=v(carrier),5,0)
SYMATTR InstName B1
SYMBOL Res 624 496 R0
SYMATTR InstName R1
SYMATTR Value 10
SYMBOL Res 432 496 R0
SYMATTR InstName R2
SYMATTR Value 10k
TEXT 152 24 Left 4 ;GaNFET Driver with Pull Down Resistor
TEXT 272 424 Left 2 !.tran 0.5
