Version 4
SHEET 1 880 680
WIRE 448 -16 448 -64
WIRE 144 16 144 -16
WIRE 448 224 448 64
WIRE 144 304 144 96
WIRE 400 304 144 304
WIRE 144 368 144 304
WIRE 448 368 448 320
WIRE 144 512 144 448
WIRE 448 512 448 448
FLAG 448 512 0
FLAG 144 -16 0
FLAG 144 512 0
FLAG 448 -64 0
SYMBOL nmos 400 224 R0
SYMATTR InstName M1
SYMATTR Value IRLML0040
SYMBOL voltage 448 80 R180
WINDOW 0 24 96 Left 2
WINDOW 3 24 74 Left 2
SYMATTR InstName V1
SYMATTR Value 10.0
SYMBOL signal 144 112 R180
WINDOW 0 24 104 Left 2
WINDOW 3 24 16 Left 2
SYMATTR InstName V2
SYMATTR Value PULSE(0 20 0.0 20 0 0 20)
SYMBOL Res 128 352 R0
SYMATTR InstName R2
SYMATTR Value 10k
SYMBOL Res 432 352 R0
SYMATTR InstName R1
SYMATTR Value 10
TEXT 664 464 Left 2 !.tran 20
